.SUBCKT npnbce B E C
V1 B E 10
V2 C E 20
.ENDS 
