.SUBCKT npnbce C B E
V1 B E 10
V2 C E 20
.ENDS 
