.SUBCKT mpdiode2b 12 22
V1 22 12 10
.ENDS 
