.SUBCKT mpdiode2a 22 12
D1 12 22 mymodel
.MODEL mymodel D
.ENDS 
