.SUBCKT mpdiode2a 22 12
V1 12 22 10
.ENDS 
