.SUBCKT pmdiode2 12 22
V1 12 22 10
.ENDS 
