.SUBCKT pmdiode1 1 2
D1 1 2 mymodel
.MODEL mymodel D
.ENDS 
